<?xml version="1.0" encoding="UTF-8"?>
<configuration xmlns:xsi="http://www.w3.org/2001/XMLSchema-instance" xsi:noNamespaceSchemaLocation="http://sumo.dlr.de/xsd/sumoConfiguration.xsd">
    <input>
        <net-file value="straight.net.xml"/>
        <route-files value="straight.rou.xml"/>
        <additional-files value="straight.add.xml"/>
    </input>
    <time>
        <begin value="0"/>
        <end value="400"/>
    </time>
</configuration>
