<?xml version="1.0" encoding="UTF-8"?>
<routes xmlns:xsi="http://www.w3.org/2001/XMLSchema-instance" xsi:noNamespaceSchemaLocation="http://sumo.dlr.de/xsd/routes_file.xsd">
    <vType id="car" accel="2.0" decel="4.5" sigma="0.0" length="5" maxSpeed="16.67" speedDev="0" speedFactor="1.0"/>
    <route id="r0" edges="e0"/>
    <vehicle id="leader" type="car" route="r0" depart="0" departLane="0" departPos="0" departSpeed="max"/>
    <vehicle id="follower" type="car" route="r0" depart="0.5" departLane="0" departPos="30" departSpeed="max"/>
</routes>
