<?xml version="1.0" encoding="UTF-8"?>

<!-- generated on 2025-10-15 18:23:28 by Eclipse SUMO netconvert Version 1.12.0
<configuration xmlns:xsi="http://www.w3.org/2001/XMLSchema-instance" xsi:noNamespaceSchemaLocation="http://sumo.dlr.de/xsd/netconvertConfiguration.xsd">

    <input>
        <node-files value="straight.nod.xml"/>
        <edge-files value="straight.edg.xml"/>
    </input>

    <output>
        <output-file value="straight.net.xml"/>
    </output>

    <report>
        <aggregate-warnings value="5"/>
    </report>

</configuration>
-->

<net version="1.9" junctionCornerDetail="5" limitTurnSpeed="5.50" xmlns:xsi="http://www.w3.org/2001/XMLSchema-instance" xsi:noNamespaceSchemaLocation="http://sumo.dlr.de/xsd/net_file.xsd">

    <location netOffset="0.00,0.00" convBoundary="0.00,0.00,1000.00,0.00" origBoundary="0.00,0.00,1000.00,0.00" projParameter="!"/>

    <edge id="e0" from="beg" to="end" priority="-1">
    <lane id="e0_0" index="0" speed="16.67" length="1500.00" shape="0.00,-1.60 1500.00,-1.60"/>
    </edge>

    <junction id="beg" type="dead_end" x="0.00" y="0.00" incLanes="" intLanes="" shape="0.00,0.00 0.00,-3.20"/>
    <junction id="end" type="dead_end" x="1500.00" y="0.00" incLanes="e0_0" intLanes="" shape="1500.00,-3.20 1500.00,0.00"/>

</net>
