<?xml version="1.0" encoding="UTF-8"?>
<routes xmlns:xsi="http://www.w3.org/2001/XMLSchema-instance" xsi:noNamespaceSchemaLocation="http://sumo.dlr.de/xsd/routes_file.xsd">
    <vType id="car" accel="1.0" decel="4.5" sigma="0.5" length="5" maxSpeed="13.89"/>
    <route id="r0" edges="e0"/>
    <vehicle id="leader" type="car" route="r0" depart="0" departLane="0" departPos="0"/>
    <vehicle id="follower" type="car" route="r0" depart="0.5" departLane="0" departPos="30"/>
</routes>
