<?xml version="1.0" encoding="UTF-8"?>
<additional xmlns:xsi="http://www.w3.org/2001/XMLSchema-instance" xsi:noNamespaceSchemaLocation="http://sumo.dlr.de/xsd/additional_file.xsd">
    <poi id="rsu0" x="200.0" y="0.0" color="255,0,0" layer="10" type="RSU"/>
    <poi id="rsu1" x="500.0" y="0.0" color="255,0,0" layer="10" type="RSU"/>
    <poi id="rsu2" x="800.0" y="0.0" color="255,0,0" layer="10" type="RSU"/>
    <!-- You can change color or add imgFile/angle if desired -->
</additional>
